<?xml version="1.0" encoding="UTF-8"?>

<!-- generated on 2022-11-04 16:24:23 by Eclipse SUMO GUI Version 1.14.1
<configuration xmlns:xsi="http://www.w3.org/2001/XMLSchema-instance" xsi:noNamespaceSchemaLocation="http://sumo.dlr.de/xsd/sumoConfiguration.xsd">

    <input>
        <net-file value="SUMO_Simulations\Basic\basic.net.xml"/>
        <route-files value="SUMO_Simulations\Basic\basic.rou.xml"/>
        <additional-files value="SUMO_Simulations\Basic\basic.add.xml"/>
    </input>

    <output>
        <tripinfo-output value="tripinfo.xml"/>
    </output>

    <traci_server>
        <remote-port value="64195"/>
    </traci_server>

</configuration>
