<routes>
    <vType id="car"
            vClass="passenger" length="5" accel="3.5" decel="2.2"
            sigma="1.0" maxSpeed="10"/> <!--sigma tells how the vehicle behaves compared to the speed limit of the roads-->
    <vType id="ev"
            vClass="emergency" length="7" accel="5.5" decel="2.2"
            sigma="1.0" maxSpeed="20" guiShape="emergency" speedFactor="2.2" minGapLat="0.2"/>

    <route id="route_1" edges="E0 E1 E2 E3 E15 E18 E16 E17 E0"/> <!--A route specifies how the car will move-->
    <route id="route_2" edges="E0 E14 E13 E12 E11 E10 E9 E8 E7 E6 E5 E4 E15 E18 E16 E17 E0"/>

    <flow id="carflow" type="car" beg="0" end="1000" number="1" route="route_1" color="1,0,0"/>
   <!--  <flow id="evflow" type="ev" beg="0" end="1000" number="5" route="route_1" color="0,1,0"/> -->

  <!--  <vehicle id="0" type="car" route="route_1" depart="0" color="1,0,0"/>-->

</routes>