<routes>
    <vType id="car"
            vClass="passenger" length="5" accel="3.5" decel="2.2"
            sigma="1.0" maxSpeed="10"/> <!--sigma tells how the vehicle behaves compared to the speed limit of the roads-->
    <vType id="ev"
            vClass="emergency" length="7" accel="5.5" decel="2.2"
            sigma="1.0" maxSpeed="20" guiShape="emergency" speedFactor="2.2" minGapLat="0.2"/>

    <route id="route_0" edges=" E0 E1 E2 E3 E15"/> <!--A route specifies how the car will move-->
    <flow id="carflow" type="car" beg="0" depart="0" end="0" number="5" from="E0" to="E15"/>
    <flow id="evflow" type="ev" beg="0" end="0" number="1" from="E0" to="E15"/>

    <!-- <vehicle id="0" type="car" route="route_0" depart="0"/> -->
</routes>