<configuration>
    <input>
        <net-file value="networkB.net.xml"/>
        <route-files value="networkA.rou.xml"/>
        <!--<additional-files value ="basic.add.xml"/>-->

    </input>
</configuration>