<configuration>
    <input>
        <net-file value="experimentA.net.xml"/>
        <route-files value="experimentA.rou.xml"/>
        <!--<additional-files value ="basic.add.xml"/>-->

    </input>
</configuration>