<routes>
    <vType id="car"
            vClass="passenger" length="5" accel="3.5" decel="2.2"
            sigma="1.0" maxSpeed="10"/> <!--sigma tells how the vehicle behaves compared to the speed limit of the roads-->
    <vType id="ev"
            vClass="emergency" length="7" accel="5.5" decel="2.2"
            sigma="1.0" maxSpeed="20" guiShape="emergency" speedFactor="2.2" minGapLat="0.2"/>

    <route id="traffic_1" edges="E0 E19 E20 E15" /> <!--A route specifies how the car will move-->

    <route id="traffic_2" edges="E18 E15" />

    <route id="route_1" edges="E0 E19 E20 E15" />
    <route id="route_2" edges="E0 E14 E13 E12 E11 E10 E9 E8 E7 E6 E5 E4 E15" />
    

   <!-- <flow id="agent1" type="car" beg="0" end="1000" number="10" route="route_1" color="1,0,0"/>-->
   <!-- <flow id="agent2" type="car" beg="0" end="1000" number="10" route="route_2" color="1,1,0"/>-->

        

    <flow id="traffic1" type="car" beg="0" end="1000" number="150" route="traffic_2" color="0,0,1"/>
    <!--<flow id="traffic2" type="car" beg="0" end="1000" number="50" route="traffic_2" color="0,1,0"/>-->
    
<!--<flow id="maincar" type="car" beg="0" end="1000" number="1000" route="route_1" color="1,0,0"/> -->

   <!--  <flow id="evflow" type="ev" beg="0" end="1000" number="5" route="route_1" color="0,1,0"/> -->

  <!--  <vehicle id="0" type="car" route="route_1" depart="0" color="1,0,0"/>-->

</routes>