<?xml version="1.0" encoding="UTF-8"?>

<!-- generated on 2022-12-01 19:11:31 by Eclipse SUMO netedit Version 1.14.1
<configuration xmlns:xsi="http://www.w3.org/2001/XMLSchema-instance" xsi:noNamespaceSchemaLocation="http://sumo.dlr.de/xsd/netconvertConfiguration.xsd">
    <input>
        <sumo-net-file value="C:\Users\joao\Desktop\ms-proj\SUMO_Simulations\Basic\networkB.net.xml"/>
    </input>
    <output>
        <output-file value="C:\Users\joao\Desktop\ms-proj\SUMO_Simulations\Basic\networkB.net.xml"/>
    </output>
    <processing>
        <geometry.min-radius.fix.railways value="false"/>
        <geometry.max-grade.fix value="false"/>
        <offset.disable-normalization value="true"/>
        <lefthand value="false"/>
    </processing>
    <junctions>
        <no-turnarounds value="true"/>
        <junctions.corner-detail value="5"/>
        <junctions.limit-turn-speed value="5.5"/>
        <rectangular-lane-cut value="false"/>
    </junctions>
    <pedestrian>
        <walkingareas value="false"/>
    </pedestrian>
</configuration>
-->

<net version="1.9" junctionCornerDetail="5" limitTurnSpeed="5.50" xmlns:xsi="http://www.w3.org/2001/XMLSchema-instance" xsi:noNamespaceSchemaLocation="http://sumo.dlr.de/xsd/net_file.xsd">

    <location netOffset="0.00,0.00" convBoundary="-46.07,10.86,198.02,108.02" origBoundary="-10000000000.00,-10000000000.00,10000000000.00,10000000000.00" projParameter="!"/>

    <edge id=":J10_0" function="internal">
        <lane id=":J10_0_0" index="0" speed="4.05" length="1.57" shape="75.29,58.99 75.69,58.95 76.04,58.81 76.35,58.59 76.61,58.28"/>
        <lane id=":J10_0_1" index="1" speed="6.37" length="4.70" shape="75.29,62.19 76.49,62.06 77.56,61.66 78.48,61.00 79.27,60.07"/>
    </edge>
    <edge id=":J11_0" function="internal">
        <lane id=":J11_0_0" index="0" speed="4.01" length="1.71" shape="69.64,58.16 69.90,58.53 70.22,58.78 70.60,58.94 71.04,58.99"/>
        <lane id=":J11_0_1" index="1" speed="6.29" length="5.13" shape="66.84,59.71 67.62,60.80 68.58,61.57 69.72,62.04 71.04,62.19"/>
    </edge>
    <edge id=":J12_0" function="internal">
        <lane id=":J12_0_0" index="0" speed="13.89" length="1.42" shape="64.73,48.96 64.75,49.17 64.77,49.31 64.83,49.45 64.93,49.64"/>
        <lane id=":J12_0_1" index="1" speed="8.34" length="1.42" shape="61.54,49.16 61.58,49.79 61.67,50.22 61.83,50.63 62.13,51.18"/>
    </edge>
    <edge id=":J13_0" function="internal">
        <lane id=":J13_0_0" index="0" speed="6.90" length="2.24" shape="62.14,25.41 62.80,26.15 63.16,26.74 63.34,27.41 63.43,28.39"/>
        <lane id=":J13_0_1" index="1" speed="4.34" length="2.24" shape="59.81,27.60 60.03,27.84 60.15,28.04 60.21,28.26 60.24,28.59"/>
    </edge>
    <edge id=":J14_0" function="internal">
        <lane id=":J14_0_0" index="0" speed="6.08" length="7.81" shape="39.16,7.96 40.90,6.71 42.62,6.32 44.31,6.80 45.98,8.14"/>
        <lane id=":J14_0_1" index="1" speed="3.90" length="2.60" shape="41.37,10.27 41.95,9.85 42.53,9.72 43.09,9.88 43.65,10.33"/>
    </edge>
    <edge id=":J15_0" function="internal">
        <lane id=":J15_0_0" index="0" speed="6.62" length="3.81" shape="23.75,24.73 23.85,23.76 24.13,22.87 24.59,22.06 25.23,21.33"/>
        <lane id=":J15_0_1" index="1" speed="4.19" length="1.27" shape="26.95,24.77 26.98,24.45 27.08,24.15 27.23,23.88 27.44,23.64"/>
    </edge>
    <edge id=":J2_0" function="internal">
        <lane id=":J2_0_0" index="0" speed="6.51" length="8.98" shape="17.73,61.60 20.17,61.27 21.92,60.23 22.98,58.50 23.36,56.07"/>
        <lane id=":J2_0_1" index="1" speed="8.00" length="14.11" shape="17.72,64.80 21.55,64.28 24.29,62.65 25.97,59.93 26.56,56.11"/>
    </edge>
    <edge id=":J2_2" function="internal">
        <lane id=":J2_2_0" index="0" speed="10.41" length="14.85" shape="17.72,64.80 22.79,65.09 26.76,65.90 29.62,67.24 31.39,69.10"/>
    </edge>
    <edge id=":J20_0" function="internal">
        <lane id=":J20_0_0" index="0" speed="3.91" length="2.53" shape="51.62,104.53 52.04,105.07 52.54,105.35 53.11,105.38 53.76,105.14"/>
    </edge>
    <edge id=":J5_0" function="internal">
        <lane id=":J5_0_0" index="0" speed="6.51" length="9.02" shape="119.57,64.34 119.85,66.80 120.84,68.58 122.56,69.68 125.00,70.10"/>
        <lane id=":J5_0_1" index="1" speed="8.00" length="14.18" shape="116.37,64.25 116.81,68.11 118.37,70.91 121.07,72.64 124.90,73.30"/>
    </edge>
    <edge id=":J5_2" function="internal">
        <lane id=":J5_2_0" index="0" speed="13.89" length="24.10" shape="100.89,74.97 105.32,74.36 111.00,73.75 117.63,73.33 124.90,73.30"/>
    </edge>
    <edge id=":J5_3" function="internal">
        <lane id=":J5_3_0" index="0" speed="13.89" length="23.63" shape="102.30,79.26 106.29,77.30 111.51,75.29 117.77,73.78 124.90,73.30"/>
    </edge>
    <edge id=":J6_0" function="internal">
        <lane id=":J6_0_0" index="0" speed="6.82" length="2.34" shape="119.44,27.30 120.07,28.11 120.41,28.75 120.54,29.47 120.54,30.50"/>
        <lane id=":J6_0_1" index="1" speed="4.29" length="2.34" shape="116.97,29.34 117.18,29.61 117.30,29.82 117.34,30.06 117.34,30.41"/>
    </edge>
    <edge id=":J7_0" function="internal">
        <lane id=":J7_0_0" index="0" speed="6.08" length="9.14" shape="95.75,7.97 97.59,6.14 99.46,5.50 101.35,6.05 103.28,7.80"/>
        <lane id=":J7_0_1" index="1" speed="3.91" length="3.05" shape="98.30,9.90 98.92,9.29 99.54,9.07 100.17,9.26 100.81,9.84"/>
    </edge>
    <edge id=":J8_0" function="internal">
        <lane id=":J8_0_0" index="0" speed="6.95" length="2.17" shape="81.97,27.98 81.97,27.02 82.08,26.35 82.38,25.75 82.94,24.97"/>
        <lane id=":J8_0_1" index="1" speed="4.36" length="2.17" shape="85.17,27.90 85.17,27.58 85.21,27.36 85.31,27.16 85.49,26.90"/>
    </edge>
    <edge id=":J9_0" function="internal">
        <lane id=":J9_0_0" index="0" speed="13.89" length="2.00" shape="82.21,49.98 82.37,49.73 82.45,49.54 82.48,49.34 82.48,49.05"/>
        <lane id=":J9_0_1" index="1" speed="7.13" length="2.00" shape="84.86,51.77 85.34,51.03 85.59,50.46 85.68,49.85 85.68,48.97"/>
    </edge>

    <edge id="E0" from="J1" to="J2" priority="-1">
        <lane id="E0_0" index="0" speed="13.89" length="63.78" shape="-46.05,61.32 17.73,61.60"/>
        <lane id="E0_1" index="1" speed="13.89" length="63.78" shape="-46.06,64.52 17.72,64.80"/>
    </edge>
    <edge id="E10" from="J12" to="J11" priority="-1">
        <lane id="E10_0" index="0" speed="13.89" length="9.75" shape="64.93,49.64 69.64,58.16"/>
        <lane id="E10_1" index="1" speed="13.89" length="9.75" shape="62.13,51.18 66.84,59.71"/>
    </edge>
    <edge id="E11" from="J13" to="J12" priority="-1">
        <lane id="E11_0" index="0" speed="13.89" length="20.62" shape="63.43,28.39 64.73,48.96"/>
        <lane id="E11_1" index="1" speed="13.89" length="20.62" shape="60.24,28.59 61.54,49.16"/>
    </edge>
    <edge id="E12" from="J14" to="J13" priority="-1">
        <lane id="E12_0" index="0" speed="13.89" length="23.65" shape="45.98,8.14 62.14,25.41"/>
        <lane id="E12_1" index="1" speed="13.89" length="23.65" shape="43.65,10.33 59.81,27.60"/>
    </edge>
    <edge id="E13" from="J15" to="J14" priority="-1">
        <lane id="E13_0" index="0" speed="13.89" length="19.31" shape="25.23,21.33 39.16,7.96"/>
        <lane id="E13_1" index="1" speed="13.89" length="19.31" shape="27.44,23.64 41.37,10.27"/>
    </edge>
    <edge id="E14" from="J2" to="J15" priority="-1">
        <lane id="E14_0" index="0" speed="13.89" length="31.35" shape="23.36,56.07 23.75,24.73"/>
        <lane id="E14_1" index="1" speed="13.89" length="31.35" shape="26.56,56.11 26.95,24.77"/>
    </edge>
    <edge id="E15" from="J5" to="J16" priority="-1" shape="114.47,74.59 135.96,75.23 198.02,74.90">
        <lane id="E15_0" index="0" speed="13.89" length="73.06" shape="125.00,70.10 136.02,70.43 197.99,70.10"/>
        <lane id="E15_1" index="1" speed="13.89" length="73.06" shape="124.90,73.30 135.98,73.63 198.01,73.30"/>
    </edge>
    <edge id="E18" from="J19" to="J5" priority="-1">
        <lane id="E18_0" index="0" speed="13.89" length="137.07" shape="-34.72,94.92 100.89,74.97"/>
    </edge>
    <edge id="E19" from="J2" to="J20" priority="-1">
        <lane id="E19_0" index="0" speed="13.89" length="40.79" shape="31.39,69.10 51.62,104.53"/>
    </edge>
    <edge id="E20" from="J20" to="J5" priority="-1">
        <lane id="E20_0" index="0" speed="13.89" length="55.01" shape="53.76,105.14 102.30,79.26"/>
    </edge>
    <edge id="E4" from="J6" to="J5" priority="-1">
        <lane id="E4_0" index="0" speed="13.89" length="33.86" shape="120.54,30.50 119.57,64.34"/>
        <lane id="E4_1" index="1" speed="13.89" length="33.86" shape="117.34,30.41 116.37,64.25"/>
    </edge>
    <edge id="E5" from="J7" to="J6" priority="-1">
        <lane id="E5_0" index="0" speed="13.89" length="25.33" shape="103.28,7.80 119.44,27.30"/>
        <lane id="E5_1" index="1" speed="13.89" length="25.33" shape="100.81,9.84 116.97,29.34"/>
    </edge>
    <edge id="E6" from="J8" to="J7" priority="-1">
        <lane id="E6_0" index="0" speed="13.89" length="21.29" shape="82.94,24.97 95.75,7.97"/>
        <lane id="E6_1" index="1" speed="13.89" length="21.29" shape="85.49,26.90 98.30,9.90"/>
    </edge>
    <edge id="E7" from="J9" to="J8" priority="-1">
        <lane id="E7_0" index="0" speed="13.89" length="21.08" shape="82.48,49.05 81.97,27.98"/>
        <lane id="E7_1" index="1" speed="13.89" length="21.08" shape="85.68,48.97 85.17,27.90"/>
    </edge>
    <edge id="E8" from="J10" to="J9" priority="-1">
        <lane id="E8_0" index="0" speed="13.89" length="10.01" shape="76.61,58.28 82.21,49.98"/>
        <lane id="E8_1" index="1" speed="13.89" length="10.01" shape="79.27,60.07 84.86,51.77"/>
    </edge>
    <edge id="E9" from="J11" to="J10" priority="-1">
        <lane id="E9_0" index="0" speed="13.89" length="4.24" shape="71.04,58.99 75.29,58.99"/>
        <lane id="E9_1" index="1" speed="13.89" length="4.24" shape="71.04,62.19 75.29,62.19"/>
    </edge>

    <junction id="J1" type="dead_end" x="-46.07" y="66.12" incLanes="" intLanes="" shape="-46.07,66.12 -46.04,59.72"/>
    <junction id="J10" type="priority" x="78.69" y="63.79" incLanes="E9_0 E9_1" intLanes=":J10_0_0 :J10_0_1" shape="80.59,60.97 75.29,57.39 75.29,63.79 77.39,63.48 78.31,63.08 79.16,62.54 79.92,61.83">
        <request index="0" response="00" foes="00" cont="0"/>
        <request index="1" response="00" foes="00" cont="0"/>
    </junction>
    <junction id="J11" type="priority" x="67.27" y="63.79" incLanes="E10_0 E10_1" intLanes=":J11_0_0 :J11_0_1" shape="71.04,63.79 71.04,57.39 65.44,60.49 66.88,62.32 67.76,62.96 68.74,63.42 69.84,63.70">
        <request index="0" response="00" foes="00" cont="0"/>
        <request index="1" response="00" foes="00" cont="0"/>
    </junction>
    <junction id="J12" type="priority" x="60.03" y="50.70" incLanes="E11_0 E11_1" intLanes=":J12_0_0 :J12_0_1" shape="60.73,51.96 66.33,48.86 59.94,49.26 60.03,50.31 60.11,50.68 60.24,51.03 60.44,51.43">
        <request index="0" response="00" foes="00" cont="0"/>
        <request index="1" response="00" foes="00" cont="0"/>
    </junction>
    <junction id="J13" type="priority" x="58.64" y="28.69" incLanes="E12_0 E12_1" intLanes=":J13_0_0 :J13_0_1" shape="58.64,28.69 65.03,28.29 64.85,26.65 64.67,26.08 64.38,25.57 63.94,25.01 63.31,24.32">
        <request index="0" response="00" foes="00" cont="0"/>
        <request index="1" response="00" foes="00" cont="0"/>
    </junction>
    <junction id="J14" type="priority" x="42.48" y="11.42" incLanes="E13_0 E13_1" intLanes=":J14_0_0 :J14_0_1" shape="42.48,11.42 47.15,7.05 44.17,4.92 42.66,4.62 41.14,4.84 39.60,5.56 38.05,6.80">
        <request index="0" response="00" foes="00" cont="0"/>
        <request index="1" response="00" foes="00" cont="0"/>
    </junction>
    <junction id="J15" type="priority" x="28.55" y="24.79" incLanes="E14_0 E14_1" intLanes=":J15_0_0 :J15_0_1" shape="28.55,24.79 24.12,20.17 23.04,21.50 22.66,22.24 22.38,23.01 22.21,23.84 22.15,24.71">
        <request index="0" response="00" foes="00" cont="0"/>
        <request index="1" response="00" foes="00" cont="0"/>
    </junction>
    <junction id="J16" type="dead_end" x="198.02" y="74.90" incLanes="E15_0 E15_1" intLanes="" shape="197.99,68.50 198.02,74.90"/>
    <junction id="J19" type="dead_end" x="-34.49" y="96.50" incLanes="" intLanes="" shape="-34.49,96.50 -34.95,93.34"/>
    <junction id="J2" type="priority" x="28.03" y="66.45" incLanes="E0_0 E0_1" intLanes=":J2_0_0 :J2_0_1 :J2_2_0" shape="30.00,69.90 32.78,68.31 31.31,65.90 30.13,64.09 29.23,62.54 28.60,60.93 28.25,58.90 28.16,56.13 21.76,56.05 21.29,58.26 20.73,59.03 19.95,59.57 18.96,59.90 17.74,60.00 17.71,66.40 20.92,66.51 23.66,66.81 25.94,67.30 27.76,67.98 29.11,68.84">
        <request index="0" response="000" foes="000" cont="0"/>
        <request index="1" response="000" foes="000" cont="0"/>
        <request index="2" response="000" foes="000" cont="0"/>
    </junction>
    <junction id="J20" type="priority" x="51.77" y="108.02" incLanes="E19_0" intLanes=":J20_0_0" shape="54.51,106.56 53.01,103.73 50.23,105.32 51.39,106.66 52.07,106.98 52.82,107.07 53.63,106.93">
        <request index="0" response="0" foes="0" cont="0"/>
    </junction>
    <junction id="J5" type="priority" x="114.47" y="74.59" incLanes="E4_0 E4_1 E18_0 E20_0" intLanes=":J5_0_0 :J5_0_1 :J5_2_0 :J5_3_0" shape="124.85,74.90 125.04,68.50 122.84,67.99 122.08,67.41 121.55,66.62 121.24,65.61 121.17,64.39 114.77,64.21 114.32,66.44 113.11,68.40 111.14,70.07 108.41,71.46 104.91,72.56 100.66,73.39 101.12,76.55 101.55,77.85 103.06,80.68 107.34,78.38 110.62,76.75 113.46,75.67 116.40,75.07 120.02,74.84">
        <request index="0" response="0000" foes="1100" cont="0"/>
        <request index="1" response="0000" foes="1100" cont="0"/>
        <request index="2" response="0011" foes="1011" cont="0"/>
        <request index="3" response="0111" foes="0111" cont="0"/>
    </junction>
    <junction id="J6" type="priority" x="115.74" y="30.36" incLanes="E5_0 E5_1" intLanes=":J6_0_0 :J6_0_1" shape="120.67,26.28 115.74,30.36 122.14,30.54 122.11,28.82 121.97,28.22 121.70,27.65 121.28,27.04">
        <request index="0" response="00" foes="00" cont="0"/>
        <request index="1" response="00" foes="00" cont="0"/>
    </junction>
    <junction id="J7" type="priority" x="99.58" y="10.86" incLanes="E6_0 E6_1" intLanes=":J7_0_0 :J7_0_1" shape="99.58,10.86 104.51,6.78 102.79,5.05 101.10,4.03 99.41,3.72 97.75,4.11 96.10,5.21 94.47,7.01">
        <request index="0" response="00" foes="00" cont="0"/>
        <request index="1" response="00" foes="00" cont="0"/>
    </junction>
    <junction id="J8" type="priority" x="86.77" y="27.86" incLanes="E7_0 E7_1" intLanes=":J8_0_0 :J8_0_1" shape="80.37,28.02 86.77,27.86 81.66,24.01 80.75,25.33 80.52,25.85 80.40,26.41 80.36,27.10">
        <request index="0" response="00" foes="00" cont="0"/>
        <request index="1" response="00" foes="00" cont="0"/>
    </junction>
    <junction id="J9" type="priority" x="87.33" y="50.97" incLanes="E8_0 E8_1" intLanes=":J9_0_0 :J9_0_1" shape="87.28,48.93 80.88,49.09 86.19,52.66 86.97,51.41 87.16,50.92 87.26,50.40 87.29,49.77">
        <request index="0" response="00" foes="00" cont="0"/>
        <request index="1" response="00" foes="00" cont="0"/>
    </junction>

    <connection from="E0" to="E14" fromLane="0" toLane="0" via=":J2_0_0" dir="r" state="M"/>
    <connection from="E0" to="E14" fromLane="1" toLane="1" via=":J2_0_1" dir="r" state="M"/>
    <connection from="E0" to="E19" fromLane="1" toLane="0" via=":J2_2_0" dir="l" state="M"/>
    <connection from="E10" to="E9" fromLane="0" toLane="0" via=":J11_0_0" dir="r" state="M"/>
    <connection from="E10" to="E9" fromLane="1" toLane="1" via=":J11_0_1" dir="r" state="M"/>
    <connection from="E11" to="E10" fromLane="0" toLane="0" via=":J12_0_0" dir="s" state="M"/>
    <connection from="E11" to="E10" fromLane="1" toLane="1" via=":J12_0_1" dir="s" state="M"/>
    <connection from="E12" to="E11" fromLane="0" toLane="0" via=":J13_0_0" dir="s" state="M"/>
    <connection from="E12" to="E11" fromLane="1" toLane="1" via=":J13_0_1" dir="s" state="M"/>
    <connection from="E13" to="E12" fromLane="0" toLane="0" via=":J14_0_0" dir="l" state="M"/>
    <connection from="E13" to="E12" fromLane="1" toLane="1" via=":J14_0_1" dir="l" state="M"/>
    <connection from="E14" to="E13" fromLane="0" toLane="0" via=":J15_0_0" dir="l" state="M"/>
    <connection from="E14" to="E13" fromLane="1" toLane="1" via=":J15_0_1" dir="l" state="M"/>
    <connection from="E18" to="E15" fromLane="0" toLane="1" via=":J5_2_0" dir="s" state="m"/>
    <connection from="E19" to="E20" fromLane="0" toLane="0" via=":J20_0_0" dir="r" state="M"/>
    <connection from="E20" to="E15" fromLane="0" toLane="1" via=":J5_3_0" dir="s" state="m"/>
    <connection from="E4" to="E15" fromLane="0" toLane="0" via=":J5_0_0" dir="r" state="M"/>
    <connection from="E4" to="E15" fromLane="1" toLane="1" via=":J5_0_1" dir="r" state="M"/>
    <connection from="E5" to="E4" fromLane="0" toLane="0" via=":J6_0_0" dir="s" state="M"/>
    <connection from="E5" to="E4" fromLane="1" toLane="1" via=":J6_0_1" dir="s" state="M"/>
    <connection from="E6" to="E5" fromLane="0" toLane="0" via=":J7_0_0" dir="l" state="M"/>
    <connection from="E6" to="E5" fromLane="1" toLane="1" via=":J7_0_1" dir="l" state="M"/>
    <connection from="E7" to="E6" fromLane="0" toLane="0" via=":J8_0_0" dir="s" state="M"/>
    <connection from="E7" to="E6" fromLane="1" toLane="1" via=":J8_0_1" dir="s" state="M"/>
    <connection from="E8" to="E7" fromLane="0" toLane="0" via=":J9_0_0" dir="s" state="M"/>
    <connection from="E8" to="E7" fromLane="1" toLane="1" via=":J9_0_1" dir="s" state="M"/>
    <connection from="E9" to="E8" fromLane="0" toLane="0" via=":J10_0_0" dir="r" state="M"/>
    <connection from="E9" to="E8" fromLane="1" toLane="1" via=":J10_0_1" dir="r" state="M"/>

    <connection from=":J10_0" to="E8" fromLane="0" toLane="0" dir="r" state="M"/>
    <connection from=":J10_0" to="E8" fromLane="1" toLane="1" dir="r" state="M"/>
    <connection from=":J11_0" to="E9" fromLane="0" toLane="0" dir="r" state="M"/>
    <connection from=":J11_0" to="E9" fromLane="1" toLane="1" dir="r" state="M"/>
    <connection from=":J12_0" to="E10" fromLane="0" toLane="0" dir="s" state="M"/>
    <connection from=":J12_0" to="E10" fromLane="1" toLane="1" dir="s" state="M"/>
    <connection from=":J13_0" to="E11" fromLane="0" toLane="0" dir="s" state="M"/>
    <connection from=":J13_0" to="E11" fromLane="1" toLane="1" dir="s" state="M"/>
    <connection from=":J14_0" to="E12" fromLane="0" toLane="0" dir="l" state="M"/>
    <connection from=":J14_0" to="E12" fromLane="1" toLane="1" dir="l" state="M"/>
    <connection from=":J15_0" to="E13" fromLane="0" toLane="0" dir="l" state="M"/>
    <connection from=":J15_0" to="E13" fromLane="1" toLane="1" dir="l" state="M"/>
    <connection from=":J2_0" to="E14" fromLane="0" toLane="0" dir="r" state="M"/>
    <connection from=":J2_0" to="E14" fromLane="1" toLane="1" dir="r" state="M"/>
    <connection from=":J2_2" to="E19" fromLane="0" toLane="0" dir="l" state="M"/>
    <connection from=":J20_0" to="E20" fromLane="0" toLane="0" dir="r" state="M"/>
    <connection from=":J5_0" to="E15" fromLane="0" toLane="0" dir="r" state="M"/>
    <connection from=":J5_0" to="E15" fromLane="1" toLane="1" dir="r" state="M"/>
    <connection from=":J5_2" to="E15" fromLane="0" toLane="1" dir="s" state="M"/>
    <connection from=":J5_3" to="E15" fromLane="0" toLane="1" dir="s" state="M"/>
    <connection from=":J6_0" to="E4" fromLane="0" toLane="0" dir="s" state="M"/>
    <connection from=":J6_0" to="E4" fromLane="1" toLane="1" dir="s" state="M"/>
    <connection from=":J7_0" to="E5" fromLane="0" toLane="0" dir="l" state="M"/>
    <connection from=":J7_0" to="E5" fromLane="1" toLane="1" dir="l" state="M"/>
    <connection from=":J8_0" to="E6" fromLane="0" toLane="0" dir="s" state="M"/>
    <connection from=":J8_0" to="E6" fromLane="1" toLane="1" dir="s" state="M"/>
    <connection from=":J9_0" to="E7" fromLane="0" toLane="0" dir="s" state="M"/>
    <connection from=":J9_0" to="E7" fromLane="1" toLane="1" dir="s" state="M"/>

</net>